[root]
type=Root
children=system
eventq_index=0
full_system=false
sim_quantum=0
time_sync_enable=false
time_sync_period=100000000000
time_sync_spin_threshold=100000000

[system]
type=System
children=clk_domain cpu0 cpu1 cpu2 cpu3 cpu_clk_domain cpu_voltage_domain dvfs_handler mem_ctrls redirect_paths0 redirect_paths1 redirect_paths2 ruby sys_port_proxy voltage_domain workload
auto_unlink_shared_backstore=false
cache_line_size=64
eventq_index=0
exit_on_work_items=false
external_memory_ranges=
init_param=0
m5ops_base=0
mem_mode=timing
mem_ranges=0:536870912
memories=system.mem_ctrls.dram
mmap_using_noreserve=false
multi_thread=false
num_work_ids=16
readfile=
redirect_paths=system.redirect_paths0 system.redirect_paths1 system.redirect_paths2
shadow_rom_ranges=
shared_backstore=
symbolfile=
thermal_components=
thermal_model=Null
work_begin_ckpt_count=0
work_begin_cpu_id_exit=-1
work_begin_exit_count=0
work_cpus_ckpt_count=0
work_end_ckpt_count=0
work_end_exit_count=0
work_item_id=-1
workload=system.workload
system_port=system.sys_port_proxy.in_ports[0]

[system.clk_domain]
type=SrcClockDomain
clock=1000
domain_id=-1
eventq_index=0
init_perf_level=0
voltage_domain=system.voltage_domain

[system.cpu0]
type=BaseO3CPU
children=SSITIndexingPolicy SSITReplPolicy branchPred decoder instQueues interrupts isa mmu power_state tracer workload
LFSTSize=1024
LQEntries=32
LSQCheckLoads=true
LSQDepCheckShift=4
SQEntries=32
SSITAssoc=1
SSITIndexingPolicy=system.cpu0.SSITIndexingPolicy
SSITReplPolicy=system.cpu0.SSITReplPolicy
SSITSize=1024
activity=0
bacToFetchDelay=1
backComSize=5
branchPred=system.cpu0.branchPred
cacheLoadPorts=200
cacheStorePorts=200
checker=Null
clk_domain=system.cpu_clk_domain
commitToDecodeDelay=1
commitToFetchDelay=1
commitToIEWDelay=1
commitToRenameDelay=1
commitWidth=8
cpu_id=0
decodeToFetchDelay=1
decodeToRenameDelay=1
decodeWidth=8
decoder=system.cpu0.decoder
decoupledFrontEnd=false
dispatchWidth=8
do_checkpoint_insts=true
do_statistics_insts=true
eventq_index=0
fetchBufferSize=64
fetchQueueSize=32
fetchTargetWidth=32
fetchToBacDelay=1
fetchToDecodeDelay=1
fetchTrapLatency=1
fetchWidth=8
forwardComSize=5
function_trace=false
function_trace_start=0
iewToCommitDelay=1
iewToDecodeDelay=1
iewToFetchDelay=1
iewToRenameDelay=1
instQueues=system.cpu0.instQueues
interrupts=system.cpu0.interrupts
isa=system.cpu0.isa
issueToExecuteDelay=1
issueWidth=8
maxFTPerCycle=4
maxTakenPredPerCycle=1
max_insts_all_threads=0
max_insts_any_thread=0
minInstSize=1
mmu=system.cpu0.mmu
needsTSO=true
numFTQEntries=8
numPhysCCRegs=1280
numPhysFloatRegs=256
numPhysIntRegs=256
numPhysMatRegs=2
numPhysVecPredRegs=32
numPhysVecRegs=256
numROBEntries=192
numRobs=1
numThreads=1
power_gating_on_idle=false
power_model=
power_state=system.cpu0.power_state
progress_interval=0
pwr_gating_latency=300
recvRespBufferSize=64
recvRespMaxCachelines=1
recvRespThrottling=false
renameToDecodeDelay=1
renameToFetchDelay=1
renameToIEWDelay=2
renameToROBDelay=1
renameWidth=8
simpoint_start_insts=
smtCommitPolicy=RoundRobin
smtFetchPolicy=RoundRobin
smtLSQPolicy=Partitioned
smtLSQThreshold=100
smtNumFetchingThreads=1
smtROBPolicy=Partitioned
smtROBThreshold=100
socket_id=0
squashWidth=NullOpt
store_set_clear_period=250000
switched_out=false
syscallRetryLatency=10000
system=system
tracer=system.cpu0.tracer
trapLatency=13
wbWidth=8
workload=system.cpu0.workload
dcache_port=system.ruby.l1_cntrl0.sequencer.in_ports[1]
icache_port=system.ruby.l1_cntrl0.sequencer.in_ports[0]

[system.cpu0.SSITIndexingPolicy]
type=SetAssociative
assoc=1
entry_size=4
eventq_index=0
size=4096

[system.cpu0.SSITReplPolicy]
type=LRURP
eventq_index=0

[system.cpu0.branchPred]
type=BranchPredictor
children=btb conditionalBranchPred indirectBranchPred ras
btb=system.cpu0.branchPred.btb
conditionalBranchPred=system.cpu0.branchPred.conditionalBranchPred
eventq_index=0
indirectBranchPred=system.cpu0.branchPred.indirectBranchPred
instShiftAmt=0
numThreads=1
ras=system.cpu0.branchPred.ras
requiresBTBHit=false
speculativeHistUpdate=true
takenOnlyHistory=false
updateBTBAtSquash=true

[system.cpu0.branchPred.btb]
type=SimpleBTB
children=btbIndexingPolicy btbReplPolicy power_state
associativity=1
btbIndexingPolicy=system.cpu0.branchPred.btb.btbIndexingPolicy
btbReplPolicy=system.cpu0.branchPred.btb.btbReplPolicy
clk_domain=system.cpu_clk_domain
eventq_index=0
instShiftAmt=0
numEntries=4096
numThreads=1
power_model=
power_state=system.cpu0.branchPred.btb.power_state
tagBits=16

[system.cpu0.branchPred.btb.btbIndexingPolicy]
type=BTBSetAssociative
assoc=1
eventq_index=0
numThreads=1
num_entries=4096
set_shift=0
tag_bits=16

[system.cpu0.branchPred.btb.btbReplPolicy]
type=LRURP
eventq_index=0

[system.cpu0.branchPred.btb.power_state]
type=PowerState
clk_gate_bins=20
clk_gate_max=1000000000000
clk_gate_min=1000
default_state=UNDEFINED
eventq_index=0
leaders=
possible_states=

[system.cpu0.branchPred.conditionalBranchPred]
type=TournamentBP
choiceCtrBits=2
choicePredictorSize=8192
eventq_index=0
globalCtrBits=2
globalPredictorSize=8192
instShiftAmt=0
localCtrBits=2
localHistoryTableSize=2048
localPredictorSize=2048
numThreads=1
speculativeHistUpdate=true

[system.cpu0.branchPred.indirectBranchPred]
type=SimpleIndirectPredictor
eventq_index=0
indirectGHRBits=13
indirectHashGHR=true
indirectHashTargets=true
indirectPathLength=3
indirectSets=256
indirectTagSize=16
indirectWays=2
instShiftAmt=0
numThreads=1
speculativePathLength=256

[system.cpu0.branchPred.ras]
type=ReturnAddrStack
eventq_index=0
numEntries=16
numThreads=1

[system.cpu0.decoder]
type=X86Decoder
eventq_index=0
isa=system.cpu0.isa

[system.cpu0.instQueues]
type=IQUnit
children=fuPool
eventq_index=0
fuPool=system.cpu0.instQueues.fuPool
numEntries=64
numThreads=1
smtIQPolicy=Partitioned
smtIQThreshold=100

[system.cpu0.instQueues.fuPool]
type=FUPool
children=FUList0 FUList1 FUList2 FUList3 FUList4 FUList5 FUList6 FUList7 FUList8 FUList9
FUList=system.cpu0.instQueues.fuPool.FUList0 system.cpu0.instQueues.fuPool.FUList1 system.cpu0.instQueues.fuPool.FUList2 system.cpu0.instQueues.fuPool.FUList3 system.cpu0.instQueues.fuPool.FUList4 system.cpu0.instQueues.fuPool.FUList5 system.cpu0.instQueues.fuPool.FUList6 system.cpu0.instQueues.fuPool.FUList7 system.cpu0.instQueues.fuPool.FUList8 system.cpu0.instQueues.fuPool.FUList9
eventq_index=0

[system.cpu0.instQueues.fuPool.FUList0]
type=FUDesc
children=opList
count=6
eventq_index=0
opList=system.cpu0.instQueues.fuPool.FUList0.opList

[system.cpu0.instQueues.fuPool.FUList0.opList]
type=OpDesc
eventq_index=0
opClass=IntAlu
opLat=1
pipelined=true

[system.cpu0.instQueues.fuPool.FUList1]
type=FUDesc
children=opList0 opList1
count=2
eventq_index=0
opList=system.cpu0.instQueues.fuPool.FUList1.opList0 system.cpu0.instQueues.fuPool.FUList1.opList1

[system.cpu0.instQueues.fuPool.FUList1.opList0]
type=OpDesc
eventq_index=0
opClass=IntMult
opLat=3
pipelined=true

[system.cpu0.instQueues.fuPool.FUList1.opList1]
type=OpDesc
eventq_index=0
opClass=IntDiv
opLat=1
pipelined=false

[system.cpu0.instQueues.fuPool.FUList2]
type=FUDesc
children=opList0 opList1 opList2 opList3
count=4
eventq_index=0
opList=system.cpu0.instQueues.fuPool.FUList2.opList0 system.cpu0.instQueues.fuPool.FUList2.opList1 system.cpu0.instQueues.fuPool.FUList2.opList2 system.cpu0.instQueues.fuPool.FUList2.opList3

[system.cpu0.instQueues.fuPool.FUList2.opList0]
type=OpDesc
eventq_index=0
opClass=FloatAdd
opLat=2
pipelined=true

[system.cpu0.instQueues.fuPool.FUList2.opList1]
type=OpDesc
eventq_index=0
opClass=FloatCmp
opLat=2
pipelined=true

[system.cpu0.instQueues.fuPool.FUList2.opList2]
type=OpDesc
eventq_index=0
opClass=FloatCvt
opLat=2
pipelined=true

[system.cpu0.instQueues.fuPool.FUList2.opList3]
type=OpDesc
eventq_index=0
opClass=Bf16Cvt
opLat=2
pipelined=true

[system.cpu0.instQueues.fuPool.FUList3]
type=FUDesc
children=opList0 opList1 opList2 opList3 opList4
count=2
eventq_index=0
opList=system.cpu0.instQueues.fuPool.FUList3.opList0 system.cpu0.instQueues.fuPool.FUList3.opList1 system.cpu0.instQueues.fuPool.FUList3.opList2 system.cpu0.instQueues.fuPool.FUList3.opList3 system.cpu0.instQueues.fuPool.FUList3.opList4

[system.cpu0.instQueues.fuPool.FUList3.opList0]
type=OpDesc
eventq_index=0
opClass=FloatMult
opLat=4
pipelined=true

[system.cpu0.instQueues.fuPool.FUList3.opList1]
type=OpDesc
eventq_index=0
opClass=FloatMultAcc
opLat=5
pipelined=true

[system.cpu0.instQueues.fuPool.FUList3.opList2]
type=OpDesc
eventq_index=0
opClass=FloatMisc
opLat=3
pipelined=true

[system.cpu0.instQueues.fuPool.FUList3.opList3]
type=OpDesc
eventq_index=0
opClass=FloatDiv
opLat=12
pipelined=false

[system.cpu0.instQueues.fuPool.FUList3.opList4]
type=OpDesc
eventq_index=0
opClass=FloatSqrt
opLat=24
pipelined=false

[system.cpu0.instQueues.fuPool.FUList4]
type=FUDesc
children=opList00 opList01 opList02 opList03 opList04 opList05 opList06 opList07 opList08 opList09 opList10
count=0
eventq_index=0
opList=system.cpu0.instQueues.fuPool.FUList4.opList00 system.cpu0.instQueues.fuPool.FUList4.opList01 system.cpu0.instQueues.fuPool.FUList4.opList02 system.cpu0.instQueues.fuPool.FUList4.opList03 system.cpu0.instQueues.fuPool.FUList4.opList04 system.cpu0.instQueues.fuPool.FUList4.opList05 system.cpu0.instQueues.fuPool.FUList4.opList06 system.cpu0.instQueues.fuPool.FUList4.opList07 system.cpu0.instQueues.fuPool.FUList4.opList08 system.cpu0.instQueues.fuPool.FUList4.opList09 system.cpu0.instQueues.fuPool.FUList4.opList10

[system.cpu0.instQueues.fuPool.FUList4.opList00]
type=OpDesc
eventq_index=0
opClass=MemRead
opLat=1
pipelined=true

[system.cpu0.instQueues.fuPool.FUList4.opList01]
type=OpDesc
eventq_index=0
opClass=FloatMemRead
opLat=1
pipelined=true

[system.cpu0.instQueues.fuPool.FUList4.opList02]
type=OpDesc
eventq_index=0
opClass=SimdUnitStrideLoad
opLat=1
pipelined=true

[system.cpu0.instQueues.fuPool.FUList4.opList03]
type=OpDesc
eventq_index=0
opClass=SimdUnitStrideMaskLoad
opLat=1
pipelined=true

[system.cpu0.instQueues.fuPool.FUList4.opList04]
type=OpDesc
eventq_index=0
opClass=SimdUnitStrideSegmentedLoad
opLat=1
pipelined=true

[system.cpu0.instQueues.fuPool.FUList4.opList05]
type=OpDesc
eventq_index=0
opClass=SimdStridedLoad
opLat=1
pipelined=true

[system.cpu0.instQueues.fuPool.FUList4.opList06]
type=OpDesc
eventq_index=0
opClass=SimdIndexedLoad
opLat=1
pipelined=true

[system.cpu0.instQueues.fuPool.FUList4.opList07]
type=OpDesc
eventq_index=0
opClass=SimdUnitStrideFaultOnlyFirstLoad
opLat=1
pipelined=true

[system.cpu0.instQueues.fuPool.FUList4.opList08]
type=OpDesc
eventq_index=0
opClass=SimdUnitStrideSegmentedFaultOnlyFirstLoad
opLat=1
pipelined=true

[system.cpu0.instQueues.fuPool.FUList4.opList09]
type=OpDesc
eventq_index=0
opClass=SimdWholeRegisterLoad
opLat=1
pipelined=true

[system.cpu0.instQueues.fuPool.FUList4.opList10]
type=OpDesc
eventq_index=0
opClass=SimdStrideSegmentedLoad
opLat=1
pipelined=true

[system.cpu0.instQueues.fuPool.FUList5]
type=FUDesc
children=opList00 opList01 opList02 opList03 opList04 opList05 opList06 opList07 opList08 opList09 opList10 opList11 opList12 opList13 opList14 opList15 opList16 opList17 opList18 opList19 opList20 opList21 opList22 opList23 opList24 opList25 opList26 opList27 opList28 opList29 opList30 opList31 opList32 opList33 opList34 opList35 opList36 opList37 opList38 opList39 opList40 opList41 opList42 opList43 opList44 opList45 opList46 opList47 opList48 opList49
count=4
eventq_index=0
opList=system.cpu0.instQueues.fuPool.FUList5.opList00 system.cpu0.instQueues.fuPool.FUList5.opList01 system.cpu0.instQueues.fuPool.FUList5.opList02 system.cpu0.instQueues.fuPool.FUList5.opList03 system.cpu0.instQueues.fuPool.FUList5.opList04 system.cpu0.instQueues.fuPool.FUList5.opList05 system.cpu0.instQueues.fuPool.FUList5.opList06 system.cpu0.instQueues.fuPool.FUList5.opList07 system.cpu0.instQueues.fuPool.FUList5.opList08 system.cpu0.instQueues.fuPool.FUList5.opList09 system.cpu0.instQueues.fuPool.FUList5.opList10 system.cpu0.instQueues.fuPool.FUList5.opList11 system.cpu0.instQueues.fuPool.FUList5.opList12 system.cpu0.instQueues.fuPool.FUList5.opList13 system.cpu0.instQueues.fuPool.FUList5.opList14 system.cpu0.instQueues.fuPool.FUList5.opList15 system.cpu0.instQueues.fuPool.FUList5.opList16 system.cpu0.instQueues.fuPool.FUList5.opList17 system.cpu0.instQueues.fuPool.FUList5.opList18 system.cpu0.instQueues.fuPool.FUList5.opList19 system.cpu0.instQueues.fuPool.FUList5.opList20 system.cpu0.instQueues.fuPool.FUList5.opList21 system.cpu0.instQueues.fuPool.FUList5.opList22 system.cpu0.instQueues.fuPool.FUList5.opList23 system.cpu0.instQueues.fuPool.FUList5.opList24 system.cpu0.instQueues.fuPool.FUList5.opList25 system.cpu0.instQueues.fuPool.FUList5.opList26 system.cpu0.instQueues.fuPool.FUList5.opList27 system.cpu0.instQueues.fuPool.FUList5.opList28 system.cpu0.instQueues.fuPool.FUList5.opList29 system.cpu0.instQueues.fuPool.FUList5.opList30 system.cpu0.instQueues.fuPool.FUList5.opList31 system.cpu0.instQueues.fuPool.FUList5.opList32 system.cpu0.instQueues.fuPool.FUList5.opList33 system.cpu0.instQueues.fuPool.FUList5.opList34 system.cpu0.instQueues.fuPool.FUList5.opList35 system.cpu0.instQueues.fuPool.FUList5.opList36 system.cpu0.instQueues.fuPool.FUList5.opList37 system.cpu0.instQueues.fuPool.FUList5.opList38 system.cpu0.instQueues.fuPool.FUList5.opList39 system.cpu0.instQueues.fuPool.FUList5.opList40 system.cpu0.instQueues.fuPool.FUList5.opList41 system.cpu0.instQueues.fuPool.FUList5.opList42 system.cpu0.instQueues.fuPool.FUList5.opList43 system.cpu0.instQueues.fuPool.FUList5.opList44 system.cpu0.instQueues.fuPool.FUList5.opList45 system.cpu0.instQueues.fuPool.FUList5.opList46 system.cpu0.instQueues.fuPool.FUList5.opList47 system.cpu0.instQueues.fuPool.FUList5.opList48 system.cpu0.instQueues.fuPool.FUList5.opList49

[system.cpu0.instQueues.fuPool.FUList5.opList00]
type=OpDesc
eventq_index=0
opClass=SimdAdd
opLat=1
pipelined=true

[system.cpu0.instQueues.fuPool.FUList5.opList01]
type=OpDesc
eventq_index=0
opClass=SimdAddAcc
opLat=1
pipelined=true

[system.cpu0.instQueues.fuPool.FUList5.opList02]
type=OpDesc
eventq_index=0
opClass=SimdAlu
opLat=1
pipelined=true

[system.cpu0.instQueues.fuPool.FUList5.opList03]
type=OpDesc
eventq_index=0
opClass=SimdCmp
opLat=1
pipelined=true

[system.cpu0.instQueues.fuPool.FUList5.opList04]
type=OpDesc
eventq_index=0
opClass=SimdCvt
opLat=1
pipelined=true

[system.cpu0.instQueues.fuPool.FUList5.opList05]
type=OpDesc
eventq_index=0
opClass=SimdMisc
opLat=1
pipelined=true

[system.cpu0.instQueues.fuPool.FUList5.opList06]
type=OpDesc
eventq_index=0
opClass=SimdMult
opLat=1
pipelined=true

[system.cpu0.instQueues.fuPool.FUList5.opList07]
type=OpDesc
eventq_index=0
opClass=SimdMultAcc
opLat=1
pipelined=true

[system.cpu0.instQueues.fuPool.FUList5.opList08]
type=OpDesc
eventq_index=0
opClass=SimdMatMultAcc
opLat=1
pipelined=true

[system.cpu0.instQueues.fuPool.FUList5.opList09]
type=OpDesc
eventq_index=0
opClass=SimdShift
opLat=1
pipelined=true

[system.cpu0.instQueues.fuPool.FUList5.opList10]
type=OpDesc
eventq_index=0
opClass=SimdShiftAcc
opLat=1
pipelined=true

[system.cpu0.instQueues.fuPool.FUList5.opList11]
type=OpDesc
eventq_index=0
opClass=SimdDiv
opLat=1
pipelined=true

[system.cpu0.instQueues.fuPool.FUList5.opList12]
type=OpDesc
eventq_index=0
opClass=SimdSqrt
opLat=1
pipelined=true

[system.cpu0.instQueues.fuPool.FUList5.opList13]
type=OpDesc
eventq_index=0
opClass=SimdFloatAdd
opLat=1
pipelined=true

[system.cpu0.instQueues.fuPool.FUList5.opList14]
type=OpDesc
eventq_index=0
opClass=SimdFloatAlu
opLat=1
pipelined=true

[system.cpu0.instQueues.fuPool.FUList5.opList15]
type=OpDesc
eventq_index=0
opClass=SimdFloatCmp
opLat=1
pipelined=true

[system.cpu0.instQueues.fuPool.FUList5.opList16]
type=OpDesc
eventq_index=0
opClass=SimdFloatCvt
opLat=1
pipelined=true

[system.cpu0.instQueues.fuPool.FUList5.opList17]
type=OpDesc
eventq_index=0
opClass=SimdFloatDiv
opLat=1
pipelined=true

[system.cpu0.instQueues.fuPool.FUList5.opList18]
type=OpDesc
eventq_index=0
opClass=SimdFloatMisc
opLat=1
pipelined=true

[system.cpu0.instQueues.fuPool.FUList5.opList19]
type=OpDesc
eventq_index=0
opClass=SimdFloatMult
opLat=1
pipelined=true

[system.cpu0.instQueues.fuPool.FUList5.opList20]
type=OpDesc
eventq_index=0
opClass=SimdFloatMultAcc
opLat=1
pipelined=true

[system.cpu0.instQueues.fuPool.FUList5.opList21]
type=OpDesc
eventq_index=0
opClass=SimdFloatMatMultAcc
opLat=1
pipelined=true

[system.cpu0.instQueues.fuPool.FUList5.opList22]
type=OpDesc
eventq_index=0
opClass=SimdFloatSqrt
opLat=1
pipelined=true

[system.cpu0.instQueues.fuPool.FUList5.opList23]
type=OpDesc
eventq_index=0
opClass=SimdReduceAdd
opLat=1
pipelined=true

[system.cpu0.instQueues.fuPool.FUList5.opList24]
type=OpDesc
eventq_index=0
opClass=SimdReduceAlu
opLat=1
pipelined=true

[system.cpu0.instQueues.fuPool.FUList5.opList25]
type=OpDesc
eventq_index=0
opClass=SimdReduceCmp
opLat=1
pipelined=true

[system.cpu0.instQueues.fuPool.FUList5.opList26]
type=OpDesc
eventq_index=0
opClass=SimdFloatReduceAdd
opLat=1
pipelined=true

[system.cpu0.instQueues.fuPool.FUList5.opList27]
type=OpDesc
eventq_index=0
opClass=SimdFloatReduceCmp
opLat=1
pipelined=true

[system.cpu0.instQueues.fuPool.FUList5.opList28]
type=OpDesc
eventq_index=0
opClass=SimdExt
opLat=1
pipelined=true

[system.cpu0.instQueues.fuPool.FUList5.opList29]
type=OpDesc
eventq_index=0
opClass=SimdFloatExt
opLat=1
pipelined=true

[system.cpu0.instQueues.fuPool.FUList5.opList30]
type=OpDesc
eventq_index=0
opClass=SimdConfig
opLat=1
pipelined=true

[system.cpu0.instQueues.fuPool.FUList5.opList31]
type=OpDesc
eventq_index=0
opClass=SimdDotProd
opLat=1
pipelined=true

[system.cpu0.instQueues.fuPool.FUList5.opList32]
type=OpDesc
eventq_index=0
opClass=SimdAes
opLat=1
pipelined=true

[system.cpu0.instQueues.fuPool.FUList5.opList33]
type=OpDesc
eventq_index=0
opClass=SimdAesMix
opLat=1
pipelined=true

[system.cpu0.instQueues.fuPool.FUList5.opList34]
type=OpDesc
eventq_index=0
opClass=SimdSha1Hash
opLat=1
pipelined=true

[system.cpu0.instQueues.fuPool.FUList5.opList35]
type=OpDesc
eventq_index=0
opClass=SimdSha1Hash2
opLat=1
pipelined=true

[system.cpu0.instQueues.fuPool.FUList5.opList36]
type=OpDesc
eventq_index=0
opClass=SimdSha256Hash
opLat=1
pipelined=true

[system.cpu0.instQueues.fuPool.FUList5.opList37]
type=OpDesc
eventq_index=0
opClass=SimdSha256Hash2
opLat=1
pipelined=true

[system.cpu0.instQueues.fuPool.FUList5.opList38]
type=OpDesc
eventq_index=0
opClass=SimdShaSigma2
opLat=1
pipelined=true

[system.cpu0.instQueues.fuPool.FUList5.opList39]
type=OpDesc
eventq_index=0
opClass=SimdShaSigma3
opLat=1
pipelined=true

[system.cpu0.instQueues.fuPool.FUList5.opList40]
type=OpDesc
eventq_index=0
opClass=SimdSha3
opLat=1
pipelined=true

[system.cpu0.instQueues.fuPool.FUList5.opList41]
type=OpDesc
eventq_index=0
opClass=SimdSm4e
opLat=1
pipelined=true

[system.cpu0.instQueues.fuPool.FUList5.opList42]
type=OpDesc
eventq_index=0
opClass=SimdCrc
opLat=1
pipelined=true

[system.cpu0.instQueues.fuPool.FUList5.opList43]
type=OpDesc
eventq_index=0
opClass=SimdBf16Add
opLat=1
pipelined=true

[system.cpu0.instQueues.fuPool.FUList5.opList44]
type=OpDesc
eventq_index=0
opClass=SimdBf16Cmp
opLat=1
pipelined=true

[system.cpu0.instQueues.fuPool.FUList5.opList45]
type=OpDesc
eventq_index=0
opClass=SimdBf16Cvt
opLat=1
pipelined=true

[system.cpu0.instQueues.fuPool.FUList5.opList46]
type=OpDesc
eventq_index=0
opClass=SimdBf16DotProd
opLat=1
pipelined=true

[system.cpu0.instQueues.fuPool.FUList5.opList47]
type=OpDesc
eventq_index=0
opClass=SimdBf16MatMultAcc
opLat=1
pipelined=true

[system.cpu0.instQueues.fuPool.FUList5.opList48]
type=OpDesc
eventq_index=0
opClass=SimdBf16Mult
opLat=1
pipelined=true

[system.cpu0.instQueues.fuPool.FUList5.opList49]
type=OpDesc
eventq_index=0
opClass=SimdBf16MultAcc
opLat=1
pipelined=true

[system.cpu0.instQueues.fuPool.FUList6]
type=FUDesc
children=opList
count=1
eventq_index=0
opList=system.cpu0.instQueues.fuPool.FUList6.opList

[system.cpu0.instQueues.fuPool.FUList6.opList]
type=OpDesc
eventq_index=0
opClass=SimdPredAlu
opLat=1
pipelined=true

[system.cpu0.instQueues.fuPool.FUList7]
type=FUDesc
children=opList0 opList1 opList2 opList3 opList4 opList5 opList6 opList7 opList8
count=0
eventq_index=0
opList=system.cpu0.instQueues.fuPool.FUList7.opList0 system.cpu0.instQueues.fuPool.FUList7.opList1 system.cpu0.instQueues.fuPool.FUList7.opList2 system.cpu0.instQueues.fuPool.FUList7.opList3 system.cpu0.instQueues.fuPool.FUList7.opList4 system.cpu0.instQueues.fuPool.FUList7.opList5 system.cpu0.instQueues.fuPool.FUList7.opList6 system.cpu0.instQueues.fuPool.FUList7.opList7 system.cpu0.instQueues.fuPool.FUList7.opList8

[system.cpu0.instQueues.fuPool.FUList7.opList0]
type=OpDesc
eventq_index=0
opClass=MemWrite
opLat=1
pipelined=true

[system.cpu0.instQueues.fuPool.FUList7.opList1]
type=OpDesc
eventq_index=0
opClass=FloatMemWrite
opLat=1
pipelined=true

[system.cpu0.instQueues.fuPool.FUList7.opList2]
type=OpDesc
eventq_index=0
opClass=SimdUnitStrideStore
opLat=1
pipelined=true

[system.cpu0.instQueues.fuPool.FUList7.opList3]
type=OpDesc
eventq_index=0
opClass=SimdUnitStrideMaskStore
opLat=1
pipelined=true

[system.cpu0.instQueues.fuPool.FUList7.opList4]
type=OpDesc
eventq_index=0
opClass=SimdUnitStrideSegmentedStore
opLat=1
pipelined=true

[system.cpu0.instQueues.fuPool.FUList7.opList5]
type=OpDesc
eventq_index=0
opClass=SimdStridedStore
opLat=1
pipelined=true

[system.cpu0.instQueues.fuPool.FUList7.opList6]
type=OpDesc
eventq_index=0
opClass=SimdIndexedStore
opLat=1
pipelined=true

[system.cpu0.instQueues.fuPool.FUList7.opList7]
type=OpDesc
eventq_index=0
opClass=SimdWholeRegisterStore
opLat=1
pipelined=true

[system.cpu0.instQueues.fuPool.FUList7.opList8]
type=OpDesc
eventq_index=0
opClass=SimdStrideSegmentedStore
opLat=1
pipelined=true

[system.cpu0.instQueues.fuPool.FUList8]
type=FUDesc
children=opList00 opList01 opList02 opList03 opList04 opList05 opList06 opList07 opList08 opList09 opList10 opList11 opList12 opList13 opList14 opList15 opList16 opList17 opList18 opList19
count=4
eventq_index=0
opList=system.cpu0.instQueues.fuPool.FUList8.opList00 system.cpu0.instQueues.fuPool.FUList8.opList01 system.cpu0.instQueues.fuPool.FUList8.opList02 system.cpu0.instQueues.fuPool.FUList8.opList03 system.cpu0.instQueues.fuPool.FUList8.opList04 system.cpu0.instQueues.fuPool.FUList8.opList05 system.cpu0.instQueues.fuPool.FUList8.opList06 system.cpu0.instQueues.fuPool.FUList8.opList07 system.cpu0.instQueues.fuPool.FUList8.opList08 system.cpu0.instQueues.fuPool.FUList8.opList09 system.cpu0.instQueues.fuPool.FUList8.opList10 system.cpu0.instQueues.fuPool.FUList8.opList11 system.cpu0.instQueues.fuPool.FUList8.opList12 system.cpu0.instQueues.fuPool.FUList8.opList13 system.cpu0.instQueues.fuPool.FUList8.opList14 system.cpu0.instQueues.fuPool.FUList8.opList15 system.cpu0.instQueues.fuPool.FUList8.opList16 system.cpu0.instQueues.fuPool.FUList8.opList17 system.cpu0.instQueues.fuPool.FUList8.opList18 system.cpu0.instQueues.fuPool.FUList8.opList19

[system.cpu0.instQueues.fuPool.FUList8.opList00]
type=OpDesc
eventq_index=0
opClass=MemRead
opLat=1
pipelined=true

[system.cpu0.instQueues.fuPool.FUList8.opList01]
type=OpDesc
eventq_index=0
opClass=MemWrite
opLat=1
pipelined=true

[system.cpu0.instQueues.fuPool.FUList8.opList02]
type=OpDesc
eventq_index=0
opClass=FloatMemRead
opLat=1
pipelined=true

[system.cpu0.instQueues.fuPool.FUList8.opList03]
type=OpDesc
eventq_index=0
opClass=FloatMemWrite
opLat=1
pipelined=true

[system.cpu0.instQueues.fuPool.FUList8.opList04]
type=OpDesc
eventq_index=0
opClass=SimdUnitStrideLoad
opLat=1
pipelined=true

[system.cpu0.instQueues.fuPool.FUList8.opList05]
type=OpDesc
eventq_index=0
opClass=SimdUnitStrideStore
opLat=1
pipelined=true

[system.cpu0.instQueues.fuPool.FUList8.opList06]
type=OpDesc
eventq_index=0
opClass=SimdUnitStrideMaskLoad
opLat=1
pipelined=true

[system.cpu0.instQueues.fuPool.FUList8.opList07]
type=OpDesc
eventq_index=0
opClass=SimdUnitStrideMaskStore
opLat=1
pipelined=true

[system.cpu0.instQueues.fuPool.FUList8.opList08]
type=OpDesc
eventq_index=0
opClass=SimdUnitStrideSegmentedLoad
opLat=1
pipelined=true

[system.cpu0.instQueues.fuPool.FUList8.opList09]
type=OpDesc
eventq_index=0
opClass=SimdUnitStrideSegmentedStore
opLat=1
pipelined=true

[system.cpu0.instQueues.fuPool.FUList8.opList10]
type=OpDesc
eventq_index=0
opClass=SimdStridedLoad
opLat=1
pipelined=true

[system.cpu0.instQueues.fuPool.FUList8.opList11]
type=OpDesc
eventq_index=0
opClass=SimdStridedStore
opLat=1
pipelined=true

[system.cpu0.instQueues.fuPool.FUList8.opList12]
type=OpDesc
eventq_index=0
opClass=SimdIndexedLoad
opLat=1
pipelined=true

[system.cpu0.instQueues.fuPool.FUList8.opList13]
type=OpDesc
eventq_index=0
opClass=SimdIndexedStore
opLat=1
pipelined=true

[system.cpu0.instQueues.fuPool.FUList8.opList14]
type=OpDesc
eventq_index=0
opClass=SimdUnitStrideFaultOnlyFirstLoad
opLat=1
pipelined=true

[system.cpu0.instQueues.fuPool.FUList8.opList15]
type=OpDesc
eventq_index=0
opClass=SimdUnitStrideSegmentedFaultOnlyFirstLoad
opLat=1
pipelined=true

[system.cpu0.instQueues.fuPool.FUList8.opList16]
type=OpDesc
eventq_index=0
opClass=SimdWholeRegisterLoad
opLat=1
pipelined=true

[system.cpu0.instQueues.fuPool.FUList8.opList17]
type=OpDesc
eventq_index=0
opClass=SimdWholeRegisterStore
opLat=1
pipelined=true

[system.cpu0.instQueues.fuPool.FUList8.opList18]
type=OpDesc
eventq_index=0
opClass=SimdStrideSegmentedLoad
opLat=1
pipelined=true

[system.cpu0.instQueues.fuPool.FUList8.opList19]
type=OpDesc
eventq_index=0
opClass=SimdStrideSegmentedStore
opLat=1
pipelined=true

[system.cpu0.instQueues.fuPool.FUList9]
type=FUDesc
children=opList
count=1
eventq_index=0
opList=system.cpu0.instQueues.fuPool.FUList9.opList

[system.cpu0.instQueues.fuPool.FUList9.opList]
type=OpDesc
eventq_index=0
opClass=System
opLat=1
pipelined=true

[system.cpu0.interrupts]
type=X86LocalApic
children=clk_domain
clk_domain=system.cpu0.interrupts.clk_domain
eventq_index=0
int_latency=1000
pio_latency=100000
system=system
int_requestor=system.ruby.l1_cntrl0.sequencer.in_ports[4]
int_responder=system.ruby.l1_cntrl0.sequencer.interrupt_out_port[1]
pio=system.ruby.l1_cntrl0.sequencer.interrupt_out_port[0]

[system.cpu0.interrupts.clk_domain]
type=DerivedClockDomain
clk_divider=16
clk_domain=system.cpu_clk_domain
eventq_index=0

[system.cpu0.isa]
type=X86ISA
APMInfo=2147483672 1752462657 1769238117 1145913699
CacheParams=0 0 0 0
ExtendedFeatures=0 25165824 0 0
ExtendedState=0 0 0 0 0 0 0 0
FamilyModelStepping=134993 2053 4024171519 521
FamilyModelSteppingBrandFeatures=134993 1029 3956538367 131073
L1CacheAndTLB=4278779656 4280352544 1073873216 1073873216
L2L3CacheAndL2TLB=0 1107313152 0 67141952
LongModeAddressSize=12336 0 0 0
eventq_index=0
name_string=Fake gem5 x86_64 CPU
vendor_string=HygonGenuine

[system.cpu0.mmu]
type=X86MMU
children=dtb itb
dtb=system.cpu0.mmu.dtb
eventq_index=0
itb=system.cpu0.mmu.itb

[system.cpu0.mmu.dtb]
type=X86TLB
children=walker
entry_type=data
eventq_index=0
next_level=Null
size=64
system=system
walker=system.cpu0.mmu.dtb.walker

[system.cpu0.mmu.dtb.walker]
type=X86PagetableWalker
children=power_state
clk_domain=system.cpu_clk_domain
eventq_index=0
num_squash_per_cycle=4
power_model=
power_state=system.cpu0.mmu.dtb.walker.power_state
system=system
port=system.ruby.l1_cntrl0.sequencer.in_ports[3]

[system.cpu0.mmu.dtb.walker.power_state]
type=PowerState
clk_gate_bins=20
clk_gate_max=1000000000000
clk_gate_min=1000
default_state=UNDEFINED
eventq_index=0
leaders=
possible_states=

[system.cpu0.mmu.itb]
type=X86TLB
children=walker
entry_type=instruction
eventq_index=0
next_level=Null
size=64
system=system
walker=system.cpu0.mmu.itb.walker

[system.cpu0.mmu.itb.walker]
type=X86PagetableWalker
children=power_state
clk_domain=system.cpu_clk_domain
eventq_index=0
num_squash_per_cycle=4
power_model=
power_state=system.cpu0.mmu.itb.walker.power_state
system=system
port=system.ruby.l1_cntrl0.sequencer.in_ports[2]

[system.cpu0.mmu.itb.walker.power_state]
type=PowerState
clk_gate_bins=20
clk_gate_max=1000000000000
clk_gate_min=1000
default_state=UNDEFINED
eventq_index=0
leaders=
possible_states=

[system.cpu0.power_state]
type=PowerState
clk_gate_bins=20
clk_gate_max=1000000000000
clk_gate_min=1000
default_state=UNDEFINED
eventq_index=0
leaders=
possible_states=ON CLK_GATED OFF

[system.cpu0.tracer]
type=ExeTracer
children=disassembler
disassembler=system.cpu0.tracer.disassembler
eventq_index=0

[system.cpu0.tracer.disassembler]
type=InstDisassembler
eventq_index=0

[system.cpu0.workload]
type=Process
cmd=/home/jerome/gem5_projects/benchmarks/openmp_test
cwd=/home/jerome/gem5
drivers=
egid=100
env=
errout=cerr
euid=100
eventq_index=0
executable=/home/jerome/gem5_projects/benchmarks/openmp_test
gid=1000
input=cin
kvmInSE=false
maxStackSize=67108864
output=cout
pgid=100
pid=100
ppid=0
release=5.1.0
simpoint=0
system=system
uid=100
useArchPT=false
zeroPages=true

[system.cpu1]
type=BaseO3CPU
children=SSITIndexingPolicy SSITReplPolicy branchPred decoder instQueues interrupts isa mmu power_state tracer
LFSTSize=1024
LQEntries=32
LSQCheckLoads=true
LSQDepCheckShift=4
SQEntries=32
SSITAssoc=1
SSITIndexingPolicy=system.cpu1.SSITIndexingPolicy
SSITReplPolicy=system.cpu1.SSITReplPolicy
SSITSize=1024
activity=0
bacToFetchDelay=1
backComSize=5
branchPred=system.cpu1.branchPred
cacheLoadPorts=200
cacheStorePorts=200
checker=Null
clk_domain=system.cpu_clk_domain
commitToDecodeDelay=1
commitToFetchDelay=1
commitToIEWDelay=1
commitToRenameDelay=1
commitWidth=8
cpu_id=1
decodeToFetchDelay=1
decodeToRenameDelay=1
decodeWidth=8
decoder=system.cpu1.decoder
decoupledFrontEnd=false
dispatchWidth=8
do_checkpoint_insts=true
do_statistics_insts=true
eventq_index=0
fetchBufferSize=64
fetchQueueSize=32
fetchTargetWidth=32
fetchToBacDelay=1
fetchToDecodeDelay=1
fetchTrapLatency=1
fetchWidth=8
forwardComSize=5
function_trace=false
function_trace_start=0
iewToCommitDelay=1
iewToDecodeDelay=1
iewToFetchDelay=1
iewToRenameDelay=1